# Set Units, & Boundary Conditions
units real
dimension 3
boundary p p s

# Set Atom Specification Style (what data is stored per atom)
atom_style atomic

# Create 200 A x 200 A x 200 A Simulation Box centered at 0
region box block -100 100 -100 100 -100 100
create_box 1 box
Created orthogonal box = (-100.00000 -100.00000 -100.00000) to (100.00000 100.00000 100.00000)

# ==============================================================================
# Define Force Field (No Interactions)
# ==============================================================================

# Use Mass of Helium (4 a.u.)
mass 1 4.0

# Set Pair Coefficients (Zero)
pair_style zero 10.
pair_coeff * *

# ==============================================================================
# Initialize System
# ==============================================================================

# Create Atoms (Molar Volume = 24.63 L/mol = 4.09e4 A^3/atom)
create_atoms 1 random 200 256345 box
Created 200 atoms

# Randomly Initialize Velocities at 300 K
velocity all create 300 562538

# ==============================================================================
# Set Up Propagation
# ==============================================================================

# Set Timestep
timestep 1

# Set Up Compressing (Ideal Reflective) Walls
variable vel equal 100/v_n_step
fix wall all wall/reflect zhi EDGE
fix piston all wall/piston zlo pos -100 vel 0.01

# Initialize NVE Propagator
fix nve all nve

# ==============================================================================
# Set Up Output
# ==============================================================================

# Output Thermodynamic Data every 100 Steps
thermo 100

# Output Atomistic Data every 100 Steps
dump 1 all atom 100 ideal-gas-compress.lammpstrj

# ==============================================================================
# Run Simulation
# ==============================================================================
run 10000
  update every 1 steps, delay 10 steps, check yes
Step Temp E_pair E_mol TotEng Press Volume
0          300            0            0    177.95436    1.0229999    7951808.5
SHOCK: step 1000 t 1000 zpos -90 vz 0.01 az 0 zlo -89.2272
SHOCK: step 2000 t 2000 zpos -80 vz 0.01 az 0 zlo -79.9777
SHOCK: step 3000 t 3000 zpos -70 vz 0.01 az 0 zlo -69.8619
SHOCK: step 4000 t 4000 zpos -60 vz 0.01 az 0 zlo -59.37
SHOCK: step 5000 t 5000 zpos -50 vz 0.01 az 0 zlo -50.0125
SHOCK: step 6000 t 6000 zpos -40 vz 0.01 az 0 zlo -39.4463
SHOCK: step 7000 t 7000 zpos -30 vz 0.01 az 0 zlo -29.3139
SHOCK: step 8000 t 8000 zpos -20 vz 0.01 az 0 zlo -20.0255
SHOCK: step 9000 t 9000 zpos -10 vz 0.01 az 0 zlo -9.89274
SHOCK: step 10000 t 10000 zpos 0 vz 0.01 az 0 zlo 0.25103
Loop time of 0.686511 on 1 procs for 10000 steps with 200 atoms
