# Set Units, & Boundary Conditions
units real
dimension 3
boundary p p p

# Set Atom Specification Style (what data is stored per atom)
atom_style atomic

# Create 200 A x 200 A x 200 A Simulation Box centered at 0
region box block -100 100 -100 100 -100 100
create_box 1 box
Created orthogonal box = (-100.00000 -100.00000 -100.00000) to (100.00000 100.00000 100.00000)

# ==============================================================================
# Define Force Field (No Interactions)
# ==============================================================================

# Use Mass of Helium (4 a.u.)
mass 1 4.0

# Set Pair Coefficients (Zero)
pair_style zero 0
pair_coeff * *

# ==============================================================================
# Initialize System
# ==============================================================================

# Create Atoms (Molar Volume = 24.63 L/mol = 4.09e4 A^3/atom)
create_atoms 1 random 200 256345 box
Created 200 atoms

# Randomly Initialize Velocities at 300 K
velocity all create 1 562538

# ==============================================================================
# Set Up Propagation
# ==============================================================================

# Set Timestep
timestep 1

# Initialize NVE Propagator
fix 1 all nvt temp 1 300 100

# ==============================================================================
# Set Up Output
# ==============================================================================

# Output Thermodynamic Data every 100 Steps
thermo 100

# Output Atomistic Data every 100 Steps
dump 1 all atom 100 ideal-gas-nve.lammpstrj

# ==============================================================================
# Run Simulation
# ==============================================================================
run 10000
  update every 1 steps, delay 10 steps, check yes
Step Temp E_pair E_mol TotEng Press
0            1            0            0    0.5931812 0.0033894579
Averages over the last 51 of 101 rows, steps 5000 to 10000:
Temp E_pair E_mol TotEng Press
224.362 0 0 133.087 0.760464
Loop time of 0.059679 on 1 procs for 10000 steps with 200 atoms
